Circuit: * C:\users\comuna\Desktop\IST\2ano\2semestre\CEB\IST-CEB\labs\lab0\Draft1.asc

.OP point found by inspection.

Date: Tue May 17 17:51:10 2022
Total elapsed time: 0.135 seconds.

tnom = 27
temp = 27
method = modified trap
totiter = 2133
traniter = 2133
tranpoints = 1065
accept = 1061
rejected = 4
matrix size = 3
fillins = 0
solver = Normal
Matrix Compiler1:       3 opcodes  0.1/[0.1]/0.1
Matrix Compiler2: 175 bytes object code size  0.1/0.1/[0.1]

