Circuit: * C:\users\comuna\Desktop\IST\2ano\2semestre\CEB\IST-CEB\labs\lab0\Draft5.asc

Warning: Multiple definitions of model "2scr375p" Type: BJT
Warning: Multiple definitions of model "bc857b" Type: BJT
Warning: Multiple definitions of model "bc847c" Type: BJT
Warning: Multiple definitions of model "bc847b" Type: BJT
Direct Newton iteration for .op point succeeded.

Date: Tue May 31 11:10:42 2022
Total elapsed time: 0.146 seconds.

tnom = 27
temp = 27
method = modified trap
totiter = 2106
traniter = 2096
tranpoints = 1049
accept = 1049
rejected = 0
matrix size = 7
fillins = 0
solver = Normal
Matrix Compiler1:      24 opcodes  0.3/[0.2]/0.2
Matrix Compiler2:      45 opcodes  0.2/[0.2]/0.2

