Circuit: * C:\users\comuna\Desktop\IST\2ano\2semestre\CEB\IST-CEB\labs\lab0\Draft2.asc

.OP point found by inspection.

Date: Fri May 20 11:25:20 2022
Total elapsed time: 0.124 seconds.

tnom = 27
temp = 27
method = modified trap
totiter = 2159
traniter = 2159
tranpoints = 1077
accept = 1071
rejected = 6
matrix size = 3
fillins = 0
solver = Normal
Matrix Compiler1: 50 bytes object code size  0.2/0.1/[0.1]
Matrix Compiler2:      15 opcodes  0.1/[0.1]/0.1

