Circuit: * C:\users\comuna\Desktop\IST\2ano\2semestre\CEB\IST-CEB\labs\lab0\Draft3.asc

Warning: Multiple definitions of model "2scr375p" Type: BJT
Warning: Multiple definitions of model "bc857b" Type: BJT
Warning: Multiple definitions of model "bc847c" Type: BJT
Warning: Multiple definitions of model "bc847b" Type: BJT
Direct Newton iteration for .op point succeeded.

Date: Tue May 31 18:32:08 2022
Total elapsed time: 0.073 seconds.

tnom = 27
temp = 27
method = trap
totiter = 6
traniter = 0
tranpoints = 0
accept = 0
rejected = 0
matrix size = 8
fillins = 0
solver = Normal
Matrix Compiler1:      14 opcodes
Matrix Compiler2: 540 bytes object code size
