Circuit: * C:\users\comuna\Desktop\IST\2ano\2semestre\CEB\IST-CEB\labs\lab1\lab1.asc

Warning: Multiple definitions of model "2scr375p" Type: BJT
Warning: Multiple definitions of model "bc857b" Type: BJT
Warning: Multiple definitions of model "bc847c" Type: BJT
Warning: Multiple definitions of model "bc847b" Type: BJT
Direct Newton iteration for .op point succeeded.

Date: Tue May 24 18:16:38 2022
Total elapsed time: 0.113 seconds.

tnom = 27
temp = 27
method = modified trap
totiter = 2270
traniter = 2249
tranpoints = 1082
accept = 1052
rejected = 30
matrix size = 18
fillins = 0
solver = Normal
Matrix Compiler1: 1.02 KB object code size  0.6/0.3/[0.3]
Matrix Compiler2: off  [0.2]/0.3/0.3

